**************************************
*      Model Generated by MODPEX     *
*Copyright(c) Symmetry Design Systems*
*         All Rights Reserved        *
*    UNPUBLISHED LICENSED SOFTWARE   *
*   Contains Proprietary Information *
*      Which is The Property of      *
*     SYMMETRY OR ITS LICENSORS      *
*    Modeling services provided by   *
* Interface Technologies www.i-t.com *
**************************************
.MODEL Dmbra140t3 d
+IS=4.21144e-07 RS=0.098312 N=0.973949 EG=0.596398
+XTI=2.44859 BV=40 IBV=0.0005 CJO=1.4486e-10
+VJ=1.09761 M=0.536808 FC=0.5 TT=0
+KF=0 AF=1
* Model generated on October 8, 2003
* Model format: PSpice
