Version 4
SHEET 1 880 680
WIRE 192 96 144 96
WIRE 432 96 256 96
WIRE 144 128 144 96
WIRE 144 128 -48 128
WIRE -48 160 -48 128
WIRE 144 176 144 128
WIRE 336 176 144 176
WIRE 432 192 432 96
WIRE 512 192 432 192
WIRE 512 256 512 192
WIRE 336 288 336 176
WIRE 336 288 304 288
WIRE 208 304 -48 304
WIRE 432 320 432 192
WIRE 432 320 304 320
WIRE 336 400 336 288
FLAG -48 240 0
FLAG -48 384 0
FLAG 512 336 0
FLAG 336 480 0
SYMBOL voltage -48 144 R0
WINDOW 123 0 0 Left 2
WINDOW 39 0 0 Left 2
SYMATTR InstName V1
SYMATTR Value PULSE(0 5 0 0.0001 0.0001 0.5 1 4)
SYMBOL voltage -48 288 R0
WINDOW 123 0 0 Left 2
WINDOW 39 0 0 Left 2
SYMATTR InstName V2
SYMATTR Value PULSE(0 4 0 0 0.00001 4.5)
SYMBOL res 496 240 R0
SYMATTR InstName R2
SYMATTR Value 6
SYMBOL res 320 384 R0
SYMATTR InstName R3
SYMATTR Value 100k
SYMBOL schottky 192 112 R270
WINDOW 0 32 32 VTop 2
WINDOW 3 0 32 VBottom 2
SYMATTR InstName D1
SYMATTR Value MBRS140
SYMATTR Description Diode
SYMATTR Type diode
SYMBOL AutoGenerated\\DMG2305UX 256 304 R0
SYMATTR InstName U1
TEXT -82 472 Left 2 !.tran 5
